Version 4
SHEET 1 1424 680
WIRE 240 -128 96 -128
WIRE 688 -128 320 -128
WIRE 944 16 944 0
WIRE 1072 16 1072 0
WIRE 944 128 944 96
WIRE 1008 128 944 128
WIRE 1072 128 1072 96
WIRE 1072 128 1008 128
WIRE -48 144 -96 144
WIRE 96 144 96 -128
WIRE 96 144 32 144
WIRE 176 144 96 144
WIRE 1008 144 1008 128
WIRE 512 160 240 160
WIRE 176 176 96 176
WIRE 688 176 688 -128
WIRE 688 176 576 176
WIRE -96 192 -96 144
WIRE 512 192 496 192
WIRE 496 304 496 192
WIRE 496 304 464 304
WIRE 528 304 496 304
WIRE 688 304 688 176
WIRE 688 304 608 304
WIRE 288 496 288 448
FLAG 1008 144 0
FLAG -96 192 0
FLAG 1072 0 V+
FLAG 208 128 V+
FLAG 944 0 V-
FLAG 208 192 V-
FLAG 288 496 0
FLAG 288 368 Vin
FLAG 544 144 V-
FLAG 544 208 V+
FLAG 688 176 Vo
FLAG 384 304 0
FLAG 96 176 Vin
SYMBOL AutoGenerated\\LM324 208 96 R0
SYMATTR InstName U1
SYMBOL voltage 1072 0 R0
WINDOW 123 0 0 Left 0
WINDOW 39 24 124 Left 2
SYMATTR InstName V++
SYMATTR Value 10
SYMBOL voltage 944 0 R0
WINDOW 123 0 0 Left 0
WINDOW 39 24 124 Left 2
SYMATTR InstName V--
SYMATTR Value -10
SYMBOL res 48 128 R90
WINDOW 0 0 56 VBottom 2
WINDOW 3 32 56 VTop 2
SYMATTR InstName Ri
SYMATTR Value 1k
SYMBOL voltage 288 352 R0
WINDOW 123 24 124 Left 2
WINDOW 39 24 124 Left 2
SYMATTR Value2 AC 1
SYMATTR InstName V1
SYMATTR Value PULSE(0 0.1 0 0.01n 0.01n 1m 2m)
SYMBOL res 336 -144 R90
WINDOW 0 0 56 VBottom 2
WINDOW 3 32 56 VTop 2
SYMATTR InstName Rf
SYMATTR Value 9K
SYMBOL AutoGenerated\\LM324 544 240 M180
SYMATTR InstName U2
SYMBOL res 480 288 R90
WINDOW 0 0 56 VBottom 2
WINDOW 3 32 56 VTop 2
SYMATTR InstName R1
SYMATTR Value 1k
SYMBOL res 624 288 R90
WINDOW 0 0 56 VBottom 2
WINDOW 3 32 56 VTop 2
SYMATTR InstName R2
SYMATTR Value 504
TEXT -16 328 Left 2 !.tran 13u
TEXT -8 344 Left 2 !.include LM324.txt
TEXT -116 520 Left 2 !;ac dec 100 10 10Meg
