Version 4
SHEET 1 2140 680
WIRE 48 -128 -96 -128
WIRE 688 -128 128 -128
WIRE 944 16 944 0
WIRE 1072 16 1072 0
WIRE 160 64 112 64
WIRE 272 64 224 64
WIRE 944 128 944 96
WIRE 1008 128 944 128
WIRE 1072 128 1072 96
WIRE 1072 128 1008 128
WIRE -240 144 -288 144
WIRE -96 144 -96 -128
WIRE -96 144 -160 144
WIRE -16 144 -96 144
WIRE 1008 144 1008 128
WIRE 112 160 112 64
WIRE 112 160 48 160
WIRE 160 160 112 160
WIRE 272 160 272 64
WIRE 272 160 240 160
WIRE 512 160 272 160
WIRE -16 176 -96 176
WIRE 272 176 272 160
WIRE 688 176 688 -128
WIRE 688 176 576 176
WIRE -288 192 -288 144
WIRE 512 192 496 192
WIRE 272 288 272 256
WIRE 384 304 336 304
WIRE 496 304 496 192
WIRE 496 304 464 304
WIRE 528 304 496 304
WIRE 688 304 688 176
WIRE 688 304 608 304
WIRE 288 496 288 448
FLAG 1008 144 0
FLAG -288 192 0
FLAG 1072 0 V+
FLAG 16 128 V+
FLAG 944 0 V-
FLAG 16 192 V-
FLAG 288 496 0
FLAG 288 368 Vin
FLAG 544 144 V-
FLAG 544 208 V+
FLAG 688 176 Vo
FLAG 336 304 0
FLAG -96 176 Vin
FLAG 272 288 0
SYMBOL LM324 16 96 R0
SYMATTR InstName U1
SYMBOL voltage 1072 0 R0
WINDOW 123 0 0 Left 0
WINDOW 39 24 124 Left 2
SYMATTR InstName V++
SYMATTR Value 10
SYMBOL voltage 944 0 R0
WINDOW 123 0 0 Left 0
WINDOW 39 24 124 Left 2
SYMATTR InstName V--
SYMATTR Value -10
SYMBOL res -144 128 R90
WINDOW 0 0 56 VBottom 2
WINDOW 3 32 56 VTop 2
SYMATTR InstName Ri
SYMATTR Value 1k
SYMBOL voltage 288 352 R0
WINDOW 123 24 124 Left 2
WINDOW 39 24 124 Left 2
SYMATTR Value2 AC 1
SYMATTR InstName V1
SYMATTR Value PULSE(0 0.1 0 1n 1n 3 6)
SYMBOL res 144 -144 R90
WINDOW 0 0 56 VBottom 2
WINDOW 3 32 56 VTop 2
SYMATTR InstName Rf
SYMATTR Value 9k
SYMBOL res 480 288 R90
WINDOW 0 0 56 VBottom 2
WINDOW 3 32 56 VTop 2
SYMATTR InstName R1
SYMATTR Value 37
SYMBOL res 624 288 R90
WINDOW 0 0 56 VBottom 2
WINDOW 3 32 56 VTop 2
SYMATTR InstName R2
SYMATTR Value 820
SYMBOL AutoGenerated\\LM6181_NS-X 544 176 M180
SYMATTR InstName U2
SYMBOL res 256 144 R90
WINDOW 0 0 56 VBottom 2
WINDOW 3 62 79 VBottom 2
SYMATTR InstName R3
SYMATTR Value 314.46
SYMBOL res 288 272 R180
WINDOW 0 36 76 Left 2
WINDOW 3 36 48 Left 2
SYMATTR InstName R4
SYMATTR Value 314.46
SYMBOL cap 224 48 R90
WINDOW 0 0 32 VBottom 2
WINDOW 3 9 -19 VBottom 2
SYMATTR InstName C1
SYMATTR Value 0.1n
TEXT -120 520 Left 2 !;tran 2u
TEXT -122 540 Left 2 !.ac dec 100 1 1G
